  Page 1                                    Thu Jan 07 13:26:48 2021

  ******************************************************************
  *                           E P A N E T                          *
  *                   Hydraulic and Water Quality                  *
  *                   Analysis for Pipe Networks                   *
  *                         Version 2.2                            *
  ******************************************************************
  
  Analysis begun Thu Jan 07 13:26:48 2021

  Analysis ended Thu Jan 07 13:26:48 2021
