  Page 1                                    Fri Jan 22 14:24:31 2021

  ******************************************************************
  *                           E P A N E T                          *
  *                   Hydraulic and Water Quality                  *
  *                   Analysis for Pipe Networks                   *
  *                         Version 2.2                            *
  ******************************************************************
  
  Analysis begun Fri Jan 22 14:24:31 2021

  WARNING: Negative pressures at 6:00:00 hrs.
   
  WARNING: Negative pressures at 7:00:00 hrs.
   
  WARNING: Negative pressures at 8:00:00 hrs.
   
  WARNING: Negative pressures at 10:00:00 hrs.
   
  WARNING: Negative pressures at 11:00:00 hrs.
   
  WARNING: Negative pressures at 12:00:00 hrs.
   
  Analysis ended Fri Jan 22 14:24:31 2021
