  Page 1                                    Wed Jan 06 18:08:50 2021

  ******************************************************************
  *                           E P A N E T                          *
  *                   Hydraulic and Water Quality                  *
  *                   Analysis for Pipe Networks                   *
  *                         Version 2.2                            *
  ******************************************************************
  
  Analysis begun Wed Jan 06 18:08:50 2021

  Analysis ended Wed Jan 06 18:08:50 2021
