  Page 1                                    Tue Feb 09 14:52:36 2021

  ******************************************************************
  *                           E P A N E T                          *
  *                   Hydraulic and Water Quality                  *
  *                   Analysis for Pipe Networks                   *
  *                         Version 2.2                            *
  ******************************************************************
  
  Analysis begun Tue Feb 09 14:52:36 2021

  Analysis ended Tue Feb 09 14:52:36 2021
