  Page 1                                    Tue Feb 16 10:53:07 2021

  ******************************************************************
  *                           E P A N E T                          *
  *                   Hydraulic and Water Quality                  *
  *                   Analysis for Pipe Networks                   *
  *                         Version 2.2                            *
  ******************************************************************
  
  Analysis begun Tue Feb 16 10:53:07 2021

  Analysis ended Tue Feb 16 10:53:07 2021
